*Heading
** Job name: Job-fiber2 Model name: Model-1
** Generated by: Abaqus/CAE 2018
*Preprint, echo=NO, model=NO, history=NO, contact=NO
**
** PARTS
**
*Part, name=SECABAQUS
*Node
      1,   81.6506348,  -91.4230499,           0.
      2,    116.42305,   38.3493652,           0.
      3,   34.1506348,  -9.15063477,           0.
      4,   91.4230499,   81.6506348,           0.
      5,  -38.3493652,    116.42305,           0.
      6,   9.15063477,   34.1506348,           0.
      7,  -81.6506348,   91.4230499,           0.
      8,   -116.42305,  -38.3493652,           0.
      9,  -34.1506348,   9.15063477,           0.
     10,  -43.9230499,   -163.92305,           0.
     11,  -91.4230499,  -81.6506348,           0.
     12,   -163.92305,   43.9230499,           0.
     13,         -60.,    103.92305,           0.
     14,   43.9230499,    163.92305,           0.
     15,    103.92305,          60.,           0.
     16,    163.92305,  -43.9230499,           0.
     17,          60.,   -103.92305,           0.
     18,   38.3493652,   -116.42305,           0.
     19,  -216.506348,         125.,           0.
     20,  -274.241364,          25.,           0.
** ... 3072 like lines cut
*Element, type=S4R
 1, 549,  56,  57, 533
 2, 533,  57,  58, 534
 3, 535, 534,  58,  59
 4, 537,  61,  62, 538
 5, 551, 552,  80,  81
 6,  60, 536, 535,  59
 7,  63, 539, 538,  62
 8,  64, 540, 539,  63
 9,  65, 541, 540,  64
10, 569, 567, 542, 541
11,  67,   2,  68, 567
12,   3,  77, 570,  76
13,  76, 570, 543,  75
14, 552, 553,  79,  80
15,  74, 544, 545,  73
16,  73, 545, 546,  72
17, 547, 556, 540, 548
18,  70, 548, 542,  69
19,  69, 542, 567,  68
20,  84,   1,  56, 549
** ... 2922 like lines cut
*Nset, nset=_PickedSet9, internal
    1,    2,    4,    5,    7,    8,   10,   11,   12,   13,   14,   15,   16,   17,   18,   19
   20,   21,   22,   23,   24,   25,   26,   27,   28,   29,   30,   31,   32,   33,   34,   35
   36,   37,   38,   39,   40,   41,   42,   43,   44,   45,   46,   47,   48,   49,   50,   51
   52,   53,   54,  143,  144,  145,  146,  147,  148,  149,  150,  151,  152,  153,  154,  155
  156,  157,  158,  159,  160,  161,  162,  163,  164,  165,  166,  167,  168,  169,  170,  171
  172,  173,  174,  175,  176,  177,  178,  179,  180,  181,  182,  183,  184,  185,  186,  187
  188,  189,  190,  191,  192,  193,  194,  195,  196,  197,  198,  199,  200,  201,  202,  203
  204,  205,  206,  207,  208,  209,  210,  211,  212,  213,  214,  215,  216,  217,  218,  219
  220,  221,  222,  223,  224,  225,  226,  227,  228,  229,  230,  231,  232,  233,  234,  235
  236,  237,  238,  239,  240,  241,  242,  243,  244,  245,  246,  247,  248,  249,  250,  251
  252,  253,  254,  255,  256,  257,  258,  259,  260,  261,  262,  263,  264,  265,  266,  267
  268,  269,  270,  271,  272,  273,  274,  275,  276,  277,  278,  279,  280,  281,  282,  283
  284,  285,  286,  287,  288,  289,  290,  291,  292,  293,  294,  295,  296,  297,  298,  299
  300,  301,  302,  303,  304,  305,  306,  307,  308,  309,  310,  311,  312,  313,  314,  315
  316,  317,  318,  319,  320,  321,  322,  323,  324,  325,  326,  327,  328,  329,  330,  331
  332,  333,  334,  335,  336,  337,  338,  339,  340,  341,  342,  343,  344,  345,  346,  347
  348,  349,  350,  351,  352,  353,  354,  355,  356,  357,  358,  359,  360,  361,  362,  363
  364,  365,  366,  367,  368,  369,  370,  371,  372,  373,  374,  375,  376,  377,  378,  379
  380,  381,  382,  383,  384,  385,  386,  387,  388,  389,  390,  391,  392,  393,  394,  395
  396,  397,  398,  399,  400,  401,  402,  403,  404,  405,  406,  407,  408,  409,  410,  411
** ... 144 like lines cut
*Elset, elset=_PickedSet9, internal, generate
  164,  2588,     1
*Nset, nset=_PickedSet10, internal
    1,    2,    3,    4,    5,    6,    7,    8,    9,   11,   18,   55,   56,   57,   58,   59
   60,   61,   62,   63,   64,   65,   66,   67,   68,   69,   70,   71,   72,   73,   74,   75
   76,   77,   78,   79,   80,   81,   82,   83,   84,   85,   86,   87,   88,   89,   90,   91
   92,   93,   94,   95,   96,   97,   98,   99,  100,  101,  102,  103,  104,  105,  106,  107
  108,  109,  110,  111,  112,  113,  114,  115,  116,  117,  118,  119,  120,  121,  122,  123
  124,  125,  126,  127,  128,  129,  130,  131,  132,  133,  134,  135,  136,  137,  138,  139
  140,  141,  142,  504,  505,  506,  507,  508,  509,  510,  511,  512,  513,  514,  515,  516
  517,  518,  519,  520,  521,  522,  523,  524,  525,  526,  527,  528,  529,  530,  531,  532
  533,  534,  535,  536,  537,  538,  539,  540,  541,  542,  543,  544,  545,  546,  547,  548
  549,  550,  551,  552,  553,  554,  555,  556,  557,  558,  559,  560,  561,  562,  563,  564
  565,  566,  567,  568,  569,  570,  571,  572,  573,  574,  575,  576,  577,  578,  579,  580
  581,  582,  583,  584,  585,  586,  587,  588,  589,  590,  591,  592,  593,  594,  595,  596
  597,  598,  599,  600,  601,  602,  603,  604,  605,  606,  607,  608,  609,  610,  611,  612
  613,  614,  615,  616,  617,  618,  619,  620,  621,  622,  623,  624,  625,  626,  627,  628
  629,  630,  631,  632,  633,  634,  635,  636,  637,  638,  639,  640,  641,  642,  643,  644
  645,  646,  647,  648,  649,  650, 2852, 2853, 2854, 2855, 2856, 2857, 2858, 2859, 2860, 2861
 2862, 2863, 2864, 2865, 2866, 2867, 2868, 2869, 2870, 2871, 2872, 2873, 2874, 2875, 2876, 2877
 2878, 2879, 2880, 2881, 2882, 2883, 2884, 2885, 2886, 2887, 2888, 2889, 2890
*Elset, elset=_PickedSet10, internal
    1,    2,    3,    4,    5,    6,    7,    8,    9,   10,   11,   12,   13,   14,   15,   16
   17,   18,   19,   20,   21,   22,   23,   24,   25,   26,   27,   28,   29,   30,   31,   32
   33,   34,   35,   36,   37,   38,   39,   40,   41,   42,   43,   44,   45,   46,   47,   48
   49,   50,   51,   52,   53,   54,   55,   56,   57,   58,   59,   60,   61,   62,   63,   64
   65,   66,   67,   68,   69,   70,   71,   72,   73,   74,   75,   76,   77,   78,   79,   80
   81,   82,   83,   84,   85,   86,   87,   88,   89,   90,   91,   92,   93,   94,   95,   96
   97,   98,   99,  100,  101,  102,  103,  104,  105,  106,  107,  108,  109,  110,  111,  112
  113,  114,  115,  116,  117,  118,  119,  120,  121,  122,  123,  124,  125,  126,  127,  128
  129,  130,  131,  132,  133,  134,  135,  136,  137,  138,  139,  140,  141,  142,  143,  144
  145,  146,  147,  148,  149,  150,  151,  152,  153,  154,  155,  156,  157,  158,  159,  160
  161,  162,  163, 2589, 2590, 2591, 2592, 2593, 2594, 2595, 2596, 2597, 2598, 2599, 2600, 2601
 2602, 2603, 2604, 2605, 2606, 2607, 2608, 2609, 2610, 2611, 2612, 2613, 2614, 2615, 2616, 2617
 2618, 2619, 2620, 2621, 2622, 2623, 2624, 2625, 2626, 2627, 2628, 2629, 2630, 2631, 2632, 2633
 2634, 2635, 2636, 2637, 2638, 2639, 2640, 2641, 2642
*Nset, nset=_PickedSet11, internal
    1,    2,    3,    4,    5,    6,    7,    8,    9,   11,   13,   15,   17,   18,   37,   38
   39,   40,   41,   42,   43,   44,   45,   46,   47,   48,   49,   50,   51,   52,   53,   54
   55,   68,   69,   70,   71,   72,   73,   74,   75,   76,   77,   78,   79,   80,   81,   82
   83,   84,   98,   99,  100,  101,  102,  103,  104,  105,  106,  107,  108,  109,  110,  111
  112,  113,  127,  128,  129,  130,  131,  132,  133,  134,  135,  136,  137,  138,  139,  140
  141,  142,  152,  153,  154,  155,  173,  174,  192,  193,  211,  212,  378,  379,  380,  381
  382,  383,  384,  385,  386,  387,  388,  389,  390,  391,  392,  393,  394,  395,  396,  397
  398,  399,  400,  401,  402,  403,  404,  405,  406,  407,  408,  409,  410,  411,  412,  413
  414,  415,  416,  417,  418,  419,  420,  421,  422,  423,  424,  425,  426,  427,  428,  429
  430,  431,  432,  433,  434,  435,  436,  437,  438,  439,  440,  441,  442,  443,  444,  445
  446,  447,  448,  449,  450,  451,  452,  453,  454,  455,  456,  457,  458,  459,  460,  461
  462,  463,  464,  465,  466,  467,  468,  469,  470,  471,  472,  473,  474,  475,  476,  477
  478,  479,  480,  481,  482,  483,  484,  485,  486,  487,  488,  489,  490,  491,  492,  493
  494,  495,  496,  497,  498,  499,  500,  501,  502,  503,  517,  518,  519,  520,  521,  522
  523,  524,  525,  526,  527,  528,  529,  530,  531,  532, 2891, 2892, 2893, 2894, 2895, 2896
 2897, 2898, 2899, 2900, 2901, 2902, 2903, 2904, 2905, 2906, 2907, 2908, 2909, 2910, 2911, 2912
 2913, 2914, 2915, 2916, 2917, 2918, 2919, 2920, 2921, 2922, 2923, 2924, 2925, 2926, 2927, 2928
 2929, 2930, 2931, 2932, 2933, 2934, 2935, 2936, 2937, 2938, 2939, 2940, 2941, 2942, 2943, 2944
 2945, 2946, 2947, 2948, 2949, 2950, 2951, 2952, 2953, 2954, 2955, 2956, 2957, 2958, 2959, 2960
 2961, 2962, 2963, 2964, 2965, 2966, 2967, 2968, 2969, 2970, 2971, 2972, 2973, 2974, 2975, 2976
** ... 8 like lines cut
*Elset, elset=_PickedSet11, internal, generate
 2643,  2942,     1
*Nset, nset=Set-CoverC
    1,    2,    4,    5,    7,    8,   10,   11,   12,   13,   14,   15,   16,   17,   18,   19
   20,   21,   22,   23,   24,   25,   26,   27,   28,   29,   30,   31,   32,   33,   34,   35
   36,   37,   38,   39,   40,   41,   42,   43,   44,   45,   46,   47,   48,   49,   50,   51
   52,   53,   54,  143,  144,  145,  146,  147,  148,  149,  150,  151,  152,  153,  154,  155
  156,  157,  158,  159,  160,  161,  162,  163,  164,  165,  166,  167,  168,  169,  170,  171
  172,  173,  174,  175,  176,  177,  178,  179,  180,  181,  182,  183,  184,  185,  186,  187
  188,  189,  190,  191,  192,  193,  194,  195,  196,  197,  198,  199,  200,  201,  202,  203
  204,  205,  206,  207,  208,  209,  210,  211,  212,  213,  214,  215,  216,  217,  218,  219
  220,  221,  222,  223,  224,  225,  226,  227,  228,  229,  230,  231,  232,  233,  234,  235
  236,  237,  238,  239,  240,  241,  242,  243,  244,  245,  246,  247,  248,  249,  250,  251
  252,  253,  254,  255,  256,  257,  258,  259,  260,  261,  262,  263,  264,  265,  266,  267
  268,  269,  270,  271,  272,  273,  274,  275,  276,  277,  278,  279,  280,  281,  282,  283
  284,  285,  286,  287,  288,  289,  290,  291,  292,  293,  294,  295,  296,  297,  298,  299
  300,  301,  302,  303,  304,  305,  306,  307,  308,  309,  310,  311,  312,  313,  314,  315
  316,  317,  318,  319,  320,  321,  322,  323,  324,  325,  326,  327,  328,  329,  330,  331
  332,  333,  334,  335,  336,  337,  338,  339,  340,  341,  342,  343,  344,  345,  346,  347
  348,  349,  350,  351,  352,  353,  354,  355,  356,  357,  358,  359,  360,  361,  362,  363
  364,  365,  366,  367,  368,  369,  370,  371,  372,  373,  374,  375,  376,  377,  378,  379
  380,  381,  382,  383,  384,  385,  386,  387,  388,  389,  390,  391,  392,  393,  394,  395
  396,  397,  398,  399,  400,  401,  402,  403,  404,  405,  406,  407,  408,  409,  410,  411
** ... 144 like lines cut
*Elset, elset=Set-CoverC, generate
  164,  2588,     1
*Nset, nset=Set-CoreC
    1,    2,    3,    4,    5,    6,    7,    8,    9,   11,   18,   55,   56,   57,   58,   59
   60,   61,   62,   63,   64,   65,   66,   67,   68,   69,   70,   71,   72,   73,   74,   75
   76,   77,   78,   79,   80,   81,   82,   83,   84,   85,   86,   87,   88,   89,   90,   91
   92,   93,   94,   95,   96,   97,   98,   99,  100,  101,  102,  103,  104,  105,  106,  107
  108,  109,  110,  111,  112,  113,  114,  115,  116,  117,  118,  119,  120,  121,  122,  123
  124,  125,  126,  127,  128,  129,  130,  131,  132,  133,  134,  135,  136,  137,  138,  139
  140,  141,  142,  504,  505,  506,  507,  508,  509,  510,  511,  512,  513,  514,  515,  516
  517,  518,  519,  520,  521,  522,  523,  524,  525,  526,  527,  528,  529,  530,  531,  532
  533,  534,  535,  536,  537,  538,  539,  540,  541,  542,  543,  544,  545,  546,  547,  548
  549,  550,  551,  552,  553,  554,  555,  556,  557,  558,  559,  560,  561,  562,  563,  564
  565,  566,  567,  568,  569,  570,  571,  572,  573,  574,  575,  576,  577,  578,  579,  580
  581,  582,  583,  584,  585,  586,  587,  588,  589,  590,  591,  592,  593,  594,  595,  596
  597,  598,  599,  600,  601,  602,  603,  604,  605,  606,  607,  608,  609,  610,  611,  612
  613,  614,  615,  616,  617,  618,  619,  620,  621,  622,  623,  624,  625,  626,  627,  628
  629,  630,  631,  632,  633,  634,  635,  636,  637,  638,  639,  640,  641,  642,  643,  644
  645,  646,  647,  648,  649,  650, 2852, 2853, 2854, 2855, 2856, 2857, 2858, 2859, 2860, 2861
 2862, 2863, 2864, 2865, 2866, 2867, 2868, 2869, 2870, 2871, 2872, 2873, 2874, 2875, 2876, 2877
 2878, 2879, 2880, 2881, 2882, 2883, 2884, 2885, 2886, 2887, 2888, 2889, 2890
*Elset, elset=Set-CoreC
    1,    2,    3,    4,    5,    6,    7,    8,    9,   10,   11,   12,   13,   14,   15,   16
   17,   18,   19,   20,   21,   22,   23,   24,   25,   26,   27,   28,   29,   30,   31,   32
   33,   34,   35,   36,   37,   38,   39,   40,   41,   42,   43,   44,   45,   46,   47,   48
   49,   50,   51,   52,   53,   54,   55,   56,   57,   58,   59,   60,   61,   62,   63,   64
   65,   66,   67,   68,   69,   70,   71,   72,   73,   74,   75,   76,   77,   78,   79,   80
   81,   82,   83,   84,   85,   86,   87,   88,   89,   90,   91,   92,   93,   94,   95,   96
   97,   98,   99,  100,  101,  102,  103,  104,  105,  106,  107,  108,  109,  110,  111,  112
  113,  114,  115,  116,  117,  118,  119,  120,  121,  122,  123,  124,  125,  126,  127,  128
  129,  130,  131,  132,  133,  134,  135,  136,  137,  138,  139,  140,  141,  142,  143,  144
  145,  146,  147,  148,  149,  150,  151,  152,  153,  154,  155,  156,  157,  158,  159,  160
  161,  162,  163, 2589, 2590, 2591, 2592, 2593, 2594, 2595, 2596, 2597, 2598, 2599, 2600, 2601
 2602, 2603, 2604, 2605, 2606, 2607, 2608, 2609, 2610, 2611, 2612, 2613, 2614, 2615, 2616, 2617
 2618, 2619, 2620, 2621, 2622, 2623, 2624, 2625, 2626, 2627, 2628, 2629, 2630, 2631, 2632, 2633
 2634, 2635, 2636, 2637, 2638, 2639, 2640, 2641, 2642
*Nset, nset=Set-Steel
    1,    2,    3,    4,    5,    6,    7,    8,    9,   11,   13,   15,   17,   18,   37,   38
   39,   40,   41,   42,   43,   44,   45,   46,   47,   48,   49,   50,   51,   52,   53,   54
   55,   68,   69,   70,   71,   72,   73,   74,   75,   76,   77,   78,   79,   80,   81,   82
   83,   84,   98,   99,  100,  101,  102,  103,  104,  105,  106,  107,  108,  109,  110,  111
  112,  113,  127,  128,  129,  130,  131,  132,  133,  134,  135,  136,  137,  138,  139,  140
  141,  142,  152,  153,  154,  155,  173,  174,  192,  193,  211,  212,  378,  379,  380,  381
  382,  383,  384,  385,  386,  387,  388,  389,  390,  391,  392,  393,  394,  395,  396,  397
  398,  399,  400,  401,  402,  403,  404,  405,  406,  407,  408,  409,  410,  411,  412,  413
  414,  415,  416,  417,  418,  419,  420,  421,  422,  423,  424,  425,  426,  427,  428,  429
  430,  431,  432,  433,  434,  435,  436,  437,  438,  439,  440,  441,  442,  443,  444,  445
  446,  447,  448,  449,  450,  451,  452,  453,  454,  455,  456,  457,  458,  459,  460,  461
  462,  463,  464,  465,  466,  467,  468,  469,  470,  471,  472,  473,  474,  475,  476,  477
  478,  479,  480,  481,  482,  483,  484,  485,  486,  487,  488,  489,  490,  491,  492,  493
  494,  495,  496,  497,  498,  499,  500,  501,  502,  503,  517,  518,  519,  520,  521,  522
  523,  524,  525,  526,  527,  528,  529,  530,  531,  532, 2891, 2892, 2893, 2894, 2895, 2896
 2897, 2898, 2899, 2900, 2901, 2902, 2903, 2904, 2905, 2907, 2908, 2909, 2910, 2911, 2912, 2913
 2914, 2915, 2916, 2917, 2918, 2919, 2920, 2921, 2922, 2923, 2924, 2925, 2926, 2927, 2928, 2929
 2930, 2931, 2932, 2933, 2934, 2935, 2936, 2937, 2938, 2939, 2940, 2941, 2942, 2943, 2944, 2945
 2946, 2947, 2948, 2949, 2950, 2951, 2952, 2953, 2954, 2955, 2956, 2957, 2958, 2959, 2960, 2961
 2962, 2963, 2964, 2965, 2966, 2967, 2968, 2969, 2970, 2971, 2972, 2973, 2974, 2975, 2976, 2977
** ... 8 like lines cut
*Elset, elset=Set-Steel
  324,  325,  326,  328,  329,  331,  655,  841, 2643, 2644, 2645, 2646, 2647, 2648, 2649, 2650
 2651, 2652, 2653, 2654, 2655, 2656, 2657, 2658, 2659, 2660, 2661, 2662, 2663, 2664, 2665, 2666
 2667, 2668, 2669, 2670, 2671, 2672, 2673, 2674, 2675, 2676, 2677, 2678, 2679, 2680, 2681, 2682
 2683, 2684, 2685, 2686, 2687, 2688, 2689, 2690, 2691, 2692, 2693, 2694, 2695, 2696, 2697, 2698
 2699, 2700, 2701, 2702, 2703, 2704, 2705, 2706, 2707, 2708, 2709, 2710, 2711, 2712, 2713, 2714
 2715, 2716, 2717, 2718, 2719, 2720, 2721, 2722, 2723, 2724, 2725, 2726, 2727, 2728, 2729, 2730
 2731, 2732, 2733, 2734, 2735, 2736, 2737, 2738, 2739, 2740, 2741, 2742, 2743, 2744, 2745, 2746
 2747, 2748, 2749, 2750, 2751, 2752, 2753, 2754, 2755, 2756, 2757, 2758, 2759, 2760, 2761, 2762
 2763, 2764, 2765, 2766, 2767, 2768, 2769, 2770, 2771, 2772, 2773, 2774, 2775, 2776, 2777, 2778
 2779, 2780, 2781, 2782, 2783, 2784, 2785, 2786, 2787, 2788, 2789, 2790, 2791, 2792, 2793, 2794
 2795, 2796, 2797, 2798, 2799, 2800, 2801, 2802, 2803, 2804, 2805, 2806, 2807, 2808, 2809, 2810
 2811, 2812, 2813, 2814, 2815, 2816, 2817, 2818, 2819, 2820, 2821, 2822, 2823, 2824, 2825, 2826
 2827, 2828, 2829, 2830, 2831, 2832, 2833, 2834, 2835, 2836, 2837, 2838, 2839, 2840, 2841, 2842
 2843, 2844, 2845, 2846, 2847, 2848, 2849, 2850, 2851, 2852, 2853, 2854, 2855, 2856, 2857, 2858
 2859, 2860, 2861, 2862, 2863, 2864, 2865, 2866, 2867, 2868, 2869, 2870, 2871, 2872, 2873, 2874
 2875, 2876, 2877, 2878, 2879, 2880, 2881, 2882, 2883, 2884, 2885, 2886, 2887, 2888, 2889, 2890
 2891, 2892, 2893, 2894, 2895, 2896, 2897, 2898, 2899, 2900, 2901, 2902, 2903, 2904, 2905, 2906
 2907, 2908, 2909, 2910, 2911, 2912, 2913, 2914, 2915, 2916, 2917, 2918, 2919, 2920, 2921, 2922
 2923, 2924, 2925, 2926, 2927, 2928, 2929, 2930, 2931, 2932, 2933, 2934, 2935, 2936, 2937, 2938
 2939, 2940, 2941, 2942
*Elset, elset=Set-CoreCCoreC
    1,    2,    3,    4,    5,    6,    7,    8,    9,   10,   11,   12,   13,   14,   15,   16
   17,   18,   19,   20,   21,   22,   23,   24,   25,   26,   27,   28,   29,   30,   31,   32
   33,   34,   35,   36,   37,   38,   39,   40,   41,   42,   43,   44,   45,   46,   47,   48
   49,   50,   51,   52,   53,   54,   55,   56,   57,   58,   59,   60,   61,   62,   63,   64
   65,   66,   67,   68,   69,   70,   71,   72,   73,   74,   75,   76,   77,   78,   79,   80
   81,   82,   83,   84,   85,   86,   87,   88,   89,   90,   91,   92,   93,   94,   95,   96
   97,   98,   99,  100,  101,  102,  103,  104,  105,  106,  107,  108,  109,  110,  111,  112
  113,  114,  115,  116,  117,  118,  119,  120,  121,  122,  123,  124,  125,  126,  127,  128
  129,  130,  131,  132,  133,  134,  135,  136,  137,  138,  139,  140,  141,  142,  143,  144
  145,  146,  147,  148,  149,  150,  151,  152,  153,  154,  155,  156,  157,  158,  159,  160
  161,  162,  163, 2589, 2590, 2591, 2592, 2593, 2594, 2595, 2596, 2597, 2598, 2599, 2600, 2601
 2602, 2603, 2604, 2605, 2606, 2607, 2608, 2609, 2610, 2611, 2612, 2613, 2614, 2615, 2616, 2617
 2618, 2619, 2620, 2621, 2622, 2623, 2624, 2625, 2626, 2627, 2628, 2629, 2630, 2631, 2632, 2633
 2634, 2635, 2636, 2637, 2638, 2639, 2640, 2641, 2642
*Elset, elset=Set-CoverCCoverC, generate
  164,  2588,     1
*Elset, elset=Set-SteelSteel
 2643, 2644, 2645, 2646, 2647, 2648, 2649, 2650, 2651, 2652, 2653, 2654, 2655, 2656, 2657, 2658
 2659, 2660, 2661, 2662, 2663, 2664, 2665, 2666, 2667, 2668, 2669, 2670, 2671, 2672, 2673, 2674
 2675, 2676, 2677, 2678, 2679, 2680, 2681, 2682, 2683, 2684, 2685, 2686, 2687, 2688, 2689, 2690
 2691, 2692, 2693, 2694, 2695, 2696, 2697, 2698, 2699, 2700, 2701, 2702, 2707, 2708, 2709, 2710
 2711, 2712, 2713, 2714, 2715, 2716, 2717, 2718, 2719, 2720, 2721, 2722, 2723, 2724, 2725, 2726
 2727, 2728, 2729, 2730, 2731, 2732, 2733, 2734, 2735, 2736, 2737, 2738, 2739, 2740, 2741, 2742
 2743, 2744, 2745, 2746, 2747, 2748, 2749, 2750, 2751, 2752, 2753, 2754, 2755, 2756, 2757, 2758
 2759, 2760, 2761, 2762, 2763, 2764, 2765, 2766, 2767, 2768, 2769, 2770, 2771, 2772, 2773, 2774
 2775, 2776, 2777, 2778, 2779, 2780, 2781, 2782, 2783, 2784, 2785, 2786, 2787, 2788, 2789, 2790
 2791, 2792, 2793, 2794, 2795, 2796, 2797, 2798, 2799, 2800, 2801, 2802, 2803, 2804, 2805, 2806
 2807, 2808, 2809, 2810, 2811, 2812, 2813, 2814, 2815, 2816, 2817, 2818, 2819, 2820, 2821, 2822
 2823, 2824, 2825, 2826, 2827, 2828, 2829, 2830, 2831, 2832, 2833, 2834, 2835, 2836, 2837, 2838
 2839, 2840, 2841, 2842, 2843, 2844, 2845, 2846, 2847, 2848, 2849, 2850, 2851, 2852, 2853, 2854
 2855, 2856, 2857, 2858, 2859, 2860, 2861, 2862, 2863, 2864, 2865, 2866, 2867, 2868, 2869, 2870
 2871, 2872, 2873, 2874, 2875, 2876, 2877, 2878, 2879, 2880, 2881, 2882, 2883, 2884, 2885, 2886
 2887, 2888, 2889, 2890, 2891, 2892, 2893, 2894, 2895, 2896, 2897, 2898, 2899, 2900, 2901, 2902
 2903, 2904, 2905, 2906, 2907, 2908, 2909, 2910, 2911, 2912, 2913, 2914, 2915, 2916, 2917, 2918
 2919, 2920, 2921, 2922, 2923, 2924, 2925, 2926, 2927, 2928, 2929, 2930, 2931, 2932, 2933, 2934
 2935, 2936, 2937, 2938, 2939, 2940, 2941, 2942
** Section: Core
*Shell Section, elset=_PickedSet10, material=Core
1., 5
** Section: Cover
*Shell Section, elset=_PickedSet9, material=Cover
1., 5
** Section: Steel
*Shell Section, elset=_PickedSet11, material=Steel
1., 5
*End Part
**  
**
** ASSEMBLY
**
*Assembly, name=Assembly
**  
*Instance, name=SECABAQUS-1, part=SECABAQUS
*End Instance
**  
*End Assembly
** 
** MATERIALS
** 
*Material, name=Core
*Elastic
35000., 0.25
*Material, name=Cover
*Elastic
30000., 0.2
*Material, name=Steel
*Elastic
210000., 0.3
